4r5y_chainA
     RDKit          3D

 18 19  0  0  0  0  0  0  0  0999 V2000
   -2.5119   24.1196   29.2735 F   0  0  0  0  0  0  0  0  0  0  0  0
   -2.1784   24.9954   30.2053 C   0  0  0  0  0  0  0  0  0  0  0  0
   -2.1667   26.2153   29.6807 F   0  0  0  0  0  0  0  0  0  0  0  0
   -3.0972   24.9593   31.1544 F   0  0  0  0  0  0  0  0  0  0  0  0
   -0.8358   24.6548   30.8149 C   0  0  0  0  0  0  0  0  0  0  0  0
    0.2878   24.3090   30.0560 C   0  0  0  0  0  0  0  0  0  0  0  0
    0.2133   24.2750   28.9791 H   0  0  0  0  0  0  0  0  0  0  0  0
    1.5065   24.0067   30.6733 C   0  0  0  0  0  0  0  0  0  0  0  0
    2.3647   23.7384   30.0750 H   0  0  0  0  0  0  0  0  0  0  0  0
   -0.7210   24.6998   32.1963 C   0  0  0  0  0  0  0  0  0  0  0  0
   -1.5765   24.9702   32.7975 H   0  0  0  0  0  0  0  0  0  0  0  0
    0.4892   24.3988   32.8118 C   0  0  0  0  0  0  0  0  0  0  0  0
    1.6103   24.0528   32.0650 C   0  0  0  0  0  0  0  0  0  0  0  0
    2.6281   23.8219   32.9470 N   0  0  0  0  0  0  0  0  0  0  0  0
    3.5730   23.5571   32.7079 H   0  0  0  0  0  0  0  0  0  0  0  0
    0.8519   24.3726   34.1035 N   0  0  0  0  0  0  0  0  0  0  0  0
    2.1437   24.0117   34.2038 C   0  0  0  0  0  0  0  0  0  0  0  0
    2.8505   23.9036   35.5100 *   0  0  0  0  0  0  0  0  0  0  0  0
  1  2  1  0
  2  3  1  0
  2  4  1  0
  2  5  1  0
  5  6  2  0
  5 10  1  0
  6  7  1  0
  6  8  1  0
  8  9  1  0
  8 13  2  0
 10 11  1  0
 10 12  2  0
 12 13  1  0
 12 16  1  0
 13 14  1  0
 14 15  1  0
 14 17  1  0
 16 17  2  0
 17 18  1  0
V   18 *
M  END
>  <kinase>  (1) 
BRAF

>  <family>  (1) 
RAF

>  <group>  (1) 
TKL

>  <complex_pdb>  (1) 
4r5y

>  <ligand_pdb>  (1) 
3K3

>  <alt>  (1) 
 

>  <chain>  (1) 
A

>  <atom.prop.subpocket>  (1) 
B1 B1 B1 B1 B1 B1 B1 B1 B1 B1 B1 B1 B1 B1 B1 B1 B1 GA

>  <atom.prop.environment>  (1) 
8 8 8 8 14 14 14 14 14 14 14 14 14 14 14 14 14 na

$$$$
5fbn_altB_chainD
     RDKit          3D

 14 14  0  0  0  0  0  0  0  0999 V2000
    3.9301   21.7088   35.8409 C   0  0  0  0  0  0  0  0  0  0  0  0
    3.0584   21.7487   34.8309 N   0  0  0  0  0  0  0  0  0  0  0  0
    5.2154   22.2761   35.7172 C   0  0  0  0  0  0  0  0  0  0  0  0
    5.8960   22.2474   36.5553 H   0  0  0  0  0  0  0  0  0  0  0  0
    5.6139   22.8712   34.5272 C   0  0  0  0  0  0  0  0  0  0  0  0
    6.9844   23.5279   34.3968 C   0  0  0  0  0  0  0  0  0  0  0  0
    7.9874   22.5942   34.3398 F   0  0  0  0  0  0  0  0  0  0  0  0
    7.2081   24.3365   35.4480 F   0  0  0  0  0  0  0  0  0  0  0  0
    7.0180   24.2833   33.2981 F   0  0  0  0  0  0  0  0  0  0  0  0
    4.6642   22.8978   33.4998 C   0  0  0  0  0  0  0  0  0  0  0  0
    4.9040   23.3691   32.5581 H   0  0  0  0  0  0  0  0  0  0  0  0
    3.4310   22.3283   33.6832 C   0  0  0  0  0  0  0  0  0  0  0  0
    2.7275   22.3480   32.8640 H   0  0  0  0  0  0  0  0  0  0  0  0
    3.4428   21.0780   36.9649 *   0  0  0  0  0  0  0  0  0  0  0  0
  1  2  2  0
  1  3  1  0
  2 12  1  0
  3  4  1  0
  3  5  2  0
  5  6  1  0
  5 10  1  0
  6  7  1  0
  6  8  1  0
  6  9  1  0
 10 11  1  0
 10 12  2  0
 12 13  1  0
  1 14  1  0
V   14 *
M  END
>  <kinase>  (2) 
BTK

>  <family>  (2) 
Tec

>  <group>  (2) 
TK

>  <complex_pdb>  (2) 
5fbn

>  <ligand_pdb>  (2) 
5WF

>  <alt>  (2) 
B

>  <chain>  (2) 
D

>  <atom.prop.subpocket>  (2) 
B1 B1 B1 B1 B1 B1 B1 B1 B1 B1 B1 B1 B1 GA

>  <atom.prop.environment>  (2) 
16 16 16 16 16 8 8 8 8 16 16 16 16 na

$$$$
3poz_chainA
     RDKit          3D

 15 15  0  0  0  0  0  0  0  0999 V2000
    4.6249   20.7128   34.8858 C   0  0  0  0  0  0  0  0  0  0  0  0
    5.3169   19.9116   34.6724 H   0  0  0  0  0  0  0  0  0  0  0  0
    2.8456   22.7996   35.4426 C   0  0  0  0  0  0  0  0  0  0  0  0
    3.3449   22.0104   36.4822 C   0  0  0  0  0  0  0  0  0  0  0  0
    3.0546   22.2149   37.5021 H   0  0  0  0  0  0  0  0  0  0  0  0
    1.8860   23.9309   35.6852 C   0  0  0  0  0  0  0  0  0  0  0  0
    1.7522   24.2411   36.9527 F   0  0  0  0  0  0  0  0  0  0  0  0
    2.3191   25.0175   35.0711 F   0  0  0  0  0  0  0  0  0  0  0  0
    0.6902   23.6106   35.2070 F   0  0  0  0  0  0  0  0  0  0  0  0
    3.2579   22.5447   34.1255 C   0  0  0  0  0  0  0  0  0  0  0  0
    2.8898   23.1627   33.3200 H   0  0  0  0  0  0  0  0  0  0  0  0
    4.1383   21.5008   33.8486 C   0  0  0  0  0  0  0  0  0  0  0  0
    4.4420   21.3042   32.8310 H   0  0  0  0  0  0  0  0  0  0  0  0
    4.2239   20.9518   36.2016 C   0  0  0  0  0  0  0  0  0  0  0  0
    4.7210   20.1664   37.2071 *   0  0  0  0  0  0  0  0  0  0  0  0
  1  2  1  0
  1 12  2  0
  1 14  1  0
  3  4  1  0
  3  6  1  0
  3 10  2  0
  4  5  1  0
  4 14  2  0
  6  7  1  0
  6  8  1  0
  6  9  1  0
 10 11  1  0
 10 12  1  0
 12 13  1  0
 14 15  1  0
V   15 *
M  END
>  <kinase>  (3) 
EGFR

>  <family>  (3) 
EGFR

>  <group>  (3) 
TK

>  <complex_pdb>  (3) 
3poz

>  <ligand_pdb>  (3) 
03P

>  <alt>  (3) 
 

>  <chain>  (3) 
A

>  <atom.prop.subpocket>  (3) 
B1 B1 B1 B1 B1 B1 B1 B1 B1 B1 B1 B1 B1 B1 GA

>  <atom.prop.environment>  (3) 
16 16 16 16 16 8 8 8 8 16 16 16 16 16 na

$$$$
3w33_altA_chainA
     RDKit          3D

 15 16  0  0  0  0  0  0  0  0999 V2000
    3.9855   21.3654   33.7025 C   0  0  0  0  0  0  0  0  0  0  0  0
    4.2378   20.9030   32.7597 H   0  0  0  0  0  0  0  0  0  0  0  0
    4.4901   20.8364   34.8715 C   0  0  0  0  0  0  0  0  0  0  0  0
    5.1327   19.9696   34.8244 H   0  0  0  0  0  0  0  0  0  0  0  0
    3.1635   22.4752   33.7140 C   0  0  0  0  0  0  0  0  0  0  0  0
    2.7669   22.9034   32.8053 H   0  0  0  0  0  0  0  0  0  0  0  0
    2.9499   23.2275   37.3015 C   0  0  0  0  0  0  0  0  0  0  0  0
    3.2537   22.9630   38.3036 H   0  0  0  0  0  0  0  0  0  0  0  0
    2.1263   24.2916   37.0424 C   0  0  0  0  0  0  0  0  0  0  0  0
    1.6926   24.9571   37.7741 H   0  0  0  0  0  0  0  0  0  0  0  0
    3.3783   22.4934   36.1559 C   0  0  0  0  0  0  0  0  0  0  0  0
    4.1915   21.3916   36.1054 C   0  0  0  0  0  0  0  0  0  0  0  0
    2.8785   23.0057   34.9615 C   0  0  0  0  0  0  0  0  0  0  0  0
    1.9111   24.3721   35.3469 S   0  0  0  0  0  0  0  0  0  0  0  0
    4.7333   20.8406   37.2647 *   0  0  0  0  0  0  0  0  0  0  0  0
  1  2  1  0
  1  3  2  0
  1  5  1  0
  3  4  1  0
  3 12  1  0
  5  6  1  0
  5 13  2  0
  7  8  1  0
  7  9  2  0
  7 11  1  0
  9 10  1  0
  9 14  1  0
 11 12  2  0
 11 13  1  0
 13 14  1  0
 12 15  1  0
V   15 *
M  END
>  <kinase>  (4) 
EGFR

>  <family>  (4) 
EGFR

>  <group>  (4) 
TK

>  <complex_pdb>  (4) 
3w33

>  <ligand_pdb>  (4) 
W19

>  <alt>  (4) 
A

>  <chain>  (4) 
A

>  <atom.prop.subpocket>  (4) 
B1 B1 B1 B1 B1 B1 B1 B1 B1 B1 B1 B1 B1 B1 GA

>  <atom.prop.environment>  (4) 
16 16 16 16 16 16 16 16 16 16 16 16 16 16 na

$$$$
6hkm_chainA
     RDKit          3D

 16 16  0  0  0  0  0  0  0  0999 V2000
    6.0385   21.2270   36.5134 C   0  0  0  0  0  0  0  0  0  0  0  0
    5.9962   20.1694   36.2988 H   0  0  0  0  0  0  0  0  0  0  0  0
    7.2361   21.8942   36.4420 C   0  0  0  0  0  0  0  0  0  0  0  0
    8.1376   21.3596   36.1811 H   0  0  0  0  0  0  0  0  0  0  0  0
    7.2882   23.2596   36.7060 C   0  0  0  0  0  0  0  0  0  0  0  0
    9.0498   24.2432   35.4156 C   0  0  0  0  0  0  0  0  0  0  0  0
    4.9278   23.2791   37.1335 C   0  0  0  0  0  0  0  0  0  0  0  0
    4.0290   23.8154   37.4001 H   0  0  0  0  0  0  0  0  0  0  0  0
    4.8720   21.9168   36.8643 C   0  0  0  0  0  0  0  0  0  0  0  0
    8.4651   23.9224   36.6534 O   0  0  0  0  0  0  0  0  0  0  0  0
   10.3220   24.7225   35.6829 F   0  0  0  0  0  0  0  0  0  0  0  0
    9.1538   23.1242   34.5882 F   0  0  0  0  0  0  0  0  0  0  0  0
    8.2774   25.2203   34.8168 F   0  0  0  0  0  0  0  0  0  0  0  0
    6.1325   23.9442   37.0595 C   0  0  0  0  0  0  0  0  0  0  0  0
    6.1782   25.0011   37.2769 H   0  0  0  0  0  0  0  0  0  0  0  0
    3.6118   21.1616   36.9424 *   0  0  0  0  0  0  0  0  0  0  0  0
  1  2  1  0
  1  3  2  0
  1  9  1  0
  3  4  1  0
  3  5  1  0
  5 10  1  0
  5 14  2  0
  6 10  1  0
  6 11  1  0
  6 12  1  0
  6 13  1  0
  7  8  1  0
  7  9  2  0
  7 14  1  0
 14 15  1  0
  9 16  1  0
V   16 *
M  END
>  <kinase>  (5) 
Erk5

>  <family>  (5) 
MAPK

>  <group>  (5) 
CMGC

>  <complex_pdb>  (5) 
6hkm

>  <ligand_pdb>  (5) 
G92

>  <alt>  (5) 
 

>  <chain>  (5) 
A

>  <atom.prop.subpocket>  (5) 
B1 B1 B1 B1 B1 B1 B1 B1 B1 B1 B1 B1 B1 B1 B1 GA

>  <atom.prop.environment>  (5) 
16 16 16 16 16 3 16 16 16 3 3 3 3 16 16 na

$$$$
3u6h_altB_chainA
     RDKit          3D

 16 16  0  0  0  0  0  0  0  0999 V2000
    5.0736   22.8183   33.5306 N   0  0  0  0  0  0  0  0  0  0  0  0
    3.9451   22.2937   34.0198 C   0  0  0  0  0  0  0  0  0  0  0  0
    5.6377   21.8703   35.3549 C   0  0  0  0  0  0  0  0  0  0  0  0
    2.5570   22.3767   33.3747 C   0  0  0  0  0  0  0  0  0  0  0  0
    2.6199   22.9495   32.4495 H   0  0  0  0  0  0  0  0  0  0  0  0
    1.8666   22.8684   34.0602 H   0  0  0  0  0  0  0  0  0  0  0  0
    2.1973   21.3713   33.1559 H   0  0  0  0  0  0  0  0  0  0  0  0
    4.2729   21.6519   35.2022 C   0  0  0  0  0  0  0  0  0  0  0  0
    6.3405   21.4650   36.2852 O   0  0  0  0  0  0  0  0  0  0  0  0
    5.1508   23.5877   32.2322 C   0  0  0  0  0  0  0  0  0  0  0  0
    4.1553   23.6628   31.7947 H   0  0  0  0  0  0  0  0  0  0  0  0
    5.8134   23.0676   31.5405 H   0  0  0  0  0  0  0  0  0  0  0  0
    5.5394   24.5877   32.4250 H   0  0  0  0  0  0  0  0  0  0  0  0
    6.0427   22.5607   34.2736 N   0  0  0  0  0  0  0  0  0  0  0  0
    3.3162   20.9272   36.1579 *   0  0  0  0  0  0  0  0  0  0  0  0
    7.2743   23.0296   34.0607 *   0  0  0  0  0  0  0  0  0  0  0  0
  1  2  1  0
  1 10  1  0
  1 14  1  0
  2  4  1  0
  2  8  2  0
  3  8  1  0
  3  9  2  0
  3 14  1  0
  4  5  1  0
  4  6  1  0
  4  7  1  0
 10 11  1  0
 10 12  1  0
 10 13  1  0
  8 15  1  0
 14 16  1  0
V   15 *
V   16 *
M  END
>  <kinase>  (6) 
MET

>  <family>  (6) 
Met

>  <group>  (6) 
TK

>  <complex_pdb>  (6) 
3u6h

>  <ligand_pdb>  (6) 
03X

>  <alt>  (6) 
B

>  <chain>  (6) 
A

>  <atom.prop.subpocket>  (6) 
B1 B1 B1 B1 B1 B1 B1 B1 B1 B1 B1 B1 B1 B1 GA B2

>  <atom.prop.environment>  (6) 
9 9 9 8 8 8 8 9 9 8 8 8 8 9 na na

$$$$
3u6i_chainA
     RDKit          3D

 23 24  0  0  0  0  0  0  0  0999 V2000
    5.6539   21.9410   35.4424 C   0  0  0  0  0  0  0  0  0  0  0  0
    4.2997   21.7269   35.2400 C   0  0  0  0  0  0  0  0  0  0  0  0
    5.1756   22.9492   33.6252 N   0  0  0  0  0  0  0  0  0  0  0  0
    4.0206   22.4188   34.0669 C   0  0  0  0  0  0  0  0  0  0  0  0
    6.1018   22.6733   34.4171 N   0  0  0  0  0  0  0  0  0  0  0  0
    6.3199   21.4981   36.3803 O   0  0  0  0  0  0  0  0  0  0  0  0
    7.3602   23.1076   34.3093 C   0  0  0  0  0  0  0  0  0  0  0  0
    7.6106   24.4104   34.7608 C   0  0  0  0  0  0  0  0  0  0  0  0
    6.8003   24.9971   35.1679 H   0  0  0  0  0  0  0  0  0  0  0  0
    8.4040   22.3411   33.7900 C   0  0  0  0  0  0  0  0  0  0  0  0
    8.2239   21.3337   33.4450 H   0  0  0  0  0  0  0  0  0  0  0  0
    9.6851   22.8939   33.7224 C   0  0  0  0  0  0  0  0  0  0  0  0
   10.4973   22.3078   33.3184 H   0  0  0  0  0  0  0  0  0  0  0  0
    8.8898   24.9605   34.6926 C   0  0  0  0  0  0  0  0  0  0  0  0
    9.0728   25.9667   35.0398 H   0  0  0  0  0  0  0  0  0  0  0  0
    9.9297   24.1923   34.1693 C   0  0  0  0  0  0  0  0  0  0  0  0
   10.9265   24.6037   34.1101 H   0  0  0  0  0  0  0  0  0  0  0  0
    2.6506   22.5274   33.3734 C   0  0  0  0  0  0  0  0  0  0  0  0
    2.7460   23.1352   32.4737 H   0  0  0  0  0  0  0  0  0  0  0  0
    1.9357   22.9926   34.0521 H   0  0  0  0  0  0  0  0  0  0  0  0
    2.3000   21.5312   33.1035 H   0  0  0  0  0  0  0  0  0  0  0  0
    3.3458   20.9501   36.1744 *   0  0  0  0  0  0  0  0  0  0  0  0
    5.3183   23.8026   32.4067 *   0  0  0  0  0  0  0  0  0  0  0  0
  1  2  1  0
  1  5  1  0
  1  6  2  0
  2  4  2  0
  3  4  1  0
  3  5  1  0
  4 18  1  0
  5  7  1  0
  7  8  2  0
  7 10  1  0
  8  9  1  0
  8 14  1  0
 10 11  1  0
 10 12  2  0
 12 13  1  0
 12 16  1  0
 14 15  1  0
 14 16  2  0
 16 17  1  0
 18 19  1  0
 18 20  1  0
 18 21  1  0
  2 22  1  0
  3 23  1  0
V   22 *
V   23 *
M  END
>  <kinase>  (7) 
MET

>  <family>  (7) 
Met

>  <group>  (7) 
TK

>  <complex_pdb>  (7) 
3u6i

>  <ligand_pdb>  (7) 
044

>  <alt>  (7) 
 

>  <chain>  (7) 
A

>  <atom.prop.subpocket>  (7) 
B1 B1 B1 B1 B1 B1 B1 B1 B1 B1 B1 B1 B1 B1 B1 B1 B1 B1 B1 B1 B1 GA B2

>  <atom.prop.environment>  (7) 
9 9 9 9 9 9 16 16 16 16 16 16 16 16 16 16 16 8 8 8 8 na na

$$$$
5ime_chainA
     RDKit          3D

 14 14  0  0  0  0  0  0  0  0999 V2000
    6.0364   23.6449   36.2426 C   0  0  0  0  0  0  0  0  0  0  0  0
    5.1145   24.1297   36.5280 H   0  0  0  0  0  0  0  0  0  0  0  0
    6.8482   24.2364   35.3315 C   0  0  0  0  0  0  0  0  0  0  0  0
    6.5649   25.1858   34.9017 H   0  0  0  0  0  0  0  0  0  0  0  0
    7.5294   21.8618   36.4250 C   0  0  0  0  0  0  0  0  0  0  0  0
    9.6490   21.8810   35.0303 C   0  0  0  0  0  0  0  0  0  0  0  0
    9.7891   20.9340   35.5515 H   0  0  0  0  0  0  0  0  0  0  0  0
   10.4755   22.5513   35.2662 H   0  0  0  0  0  0  0  0  0  0  0  0
    9.6209   21.7034   33.9552 H   0  0  0  0  0  0  0  0  0  0  0  0
    8.3513   22.5093   35.4699 C   0  0  0  0  0  0  0  0  0  0  0  0
    7.8744   20.7900   36.8923 O   0  0  0  0  0  0  0  0  0  0  0  0
    6.3671   22.4484   36.8030 N   0  0  0  0  0  0  0  0  0  0  0  0
    7.9884   23.6623   34.9608 N   0  0  0  0  0  0  0  0  0  0  0  0
    5.4951   21.8724   37.7460 *   0  0  0  0  0  0  0  0  0  0  0  0
  1  2  1  0
  1  3  2  0
  1 12  1  0
  3  4  1  0
  3 13  1  0
  5 10  1  0
  5 11  2  0
  5 12  1  0
  6  7  1  0
  6  8  1  0
  6  9  1  0
  6 10  1  0
 10 13  2  0
 12 14  1  0
V   14 *
M  END
>  <kinase>  (8) 
PAK1

>  <family>  (8) 
STE20

>  <group>  (8) 
STE

>  <complex_pdb>  (8) 
5ime

>  <ligand_pdb>  (8) 
6BZ

>  <alt>  (8) 
 

>  <chain>  (8) 
A

>  <atom.prop.subpocket>  (8) 
B1 B1 B1 B1 B1 B1 B1 B1 B1 B1 B1 B1 B1 GA

>  <atom.prop.environment>  (8) 
9 9 9 9 9 8 8 8 8 9 9 9 9 na

$$$$
