3efw_chainA
     RDKit          3D

 21 21  0  0  0  0  0  0  0  0999 V2000
    8.5780   16.2688   35.5277 C   0  0  0  0  0  0  0  0  0  0  0  0
    8.3198   16.1383   36.5683 H   0  0  0  0  0  0  0  0  0  0  0  0
    9.7922   15.7799   35.0495 C   0  0  0  0  0  0  0  0  0  0  0  0
   10.4719   15.2804   35.7241 H   0  0  0  0  0  0  0  0  0  0  0  0
   10.1364   15.9308   33.7062 C   0  0  0  0  0  0  0  0  0  0  0  0
   11.0800   15.5484   33.3458 H   0  0  0  0  0  0  0  0  0  0  0  0
    8.0450   17.0645   33.3191 C   0  0  0  0  0  0  0  0  0  0  0  0
    7.3624   17.5586   32.6436 H   0  0  0  0  0  0  0  0  0  0  0  0
    4.7340   17.8842   36.4342 N   0  0  0  0  0  0  0  0  0  0  0  0
    4.3172   18.3111   35.6193 H   0  0  0  0  0  0  0  0  0  0  0  0
    5.9501   17.3321   36.3113 C   0  0  0  0  0  0  0  0  0  0  0  0
    6.5192   16.8103   37.2740 O   0  0  0  0  0  0  0  0  0  0  0  0
    6.4975   17.4043   35.0831 N   0  0  0  0  0  0  0  0  0  0  0  0
    5.9452   17.8752   34.3807 H   0  0  0  0  0  0  0  0  0  0  0  0
    7.6936   16.9258   34.6713 C   0  0  0  0  0  0  0  0  0  0  0  0
    9.2650   16.5747   32.8264 C   0  0  0  0  0  0  0  0  0  0  0  0
    9.6693   16.7373   31.3373 C   0  0  0  0  0  0  0  0  0  0  0  0
    8.6064   16.7602   30.5348 F   0  0  0  0  0  0  0  0  0  0  0  0
   10.3305   17.8881   31.1635 F   0  0  0  0  0  0  0  0  0  0  0  0
   10.4543   15.7099   30.9837 F   0  0  0  0  0  0  0  0  0  0  0  0
    4.0379   17.8988   37.5915 *   0  0  0  0  0  0  0  0  0  0  0  0
  1  2  1  0
  1  3  2  0
  1 15  1  0
  3  4  1  0
  3  5  1  0
  5  6  1  0
  5 16  2  0
  7  8  1  0
  7 15  2  0
  7 16  1  0
  9 10  1  0
  9 11  1  0
 11 12  2  0
 11 13  1  0
 13 14  1  0
 13 15  1  0
 16 17  1  0
 17 18  1  0
 17 19  1  0
 17 20  1  0
  9 21  1  0
V   21 *
M  END
>  <kinase>  (1) 
AurA

>  <family>  (1) 
Aur

>  <group>  (1) 
Other

>  <complex_pdb>  (1) 
3efw

>  <ligand_pdb>  (1) 
AK8

>  <alt>  (1) 
 

>  <chain>  (1) 
A

>  <atom.prop.subpocket>  (1) 
B2 B2 B2 B2 B2 B2 B2 B2 B2 B2 B2 B2 B2 B2 B2 B2 B2 B2 B2 B2 GA

>  <atom.prop.environment>  (1) 
16 16 16 16 16 16 16 16 5 5 1 1 5 5 16 16 8 8 8 8 na

$$$$
3m11_chainA
     RDKit          3D

 18 18  0  0  0  0  0  0  0  0999 V2000
    4.8309   18.5525   35.3540 N   0  0  0  0  0  0  0  0  0  0  0  0
    4.6742   19.3344   34.7342 H   0  0  0  0  0  0  0  0  0  0  0  0
    5.8624   17.7387   35.1491 C   0  0  0  0  0  0  0  0  0  0  0  0
    6.6436   18.0162   34.1093 N   0  0  0  0  0  0  0  0  0  0  0  0
    6.4384   18.8115   33.5215 H   0  0  0  0  0  0  0  0  0  0  0  0
    7.6948   17.2466   33.8432 C   0  0  0  0  0  0  0  0  0  0  0  0
    8.1236   17.0865   32.5301 C   0  0  0  0  0  0  0  0  0  0  0  0
    7.6029   17.5869   31.7270 H   0  0  0  0  0  0  0  0  0  0  0  0
    9.2227   16.2821   32.2514 C   0  0  0  0  0  0  0  0  0  0  0  0
    9.5567   16.1584   31.2318 H   0  0  0  0  0  0  0  0  0  0  0  0
    9.8918   15.6368   33.2853 C   0  0  0  0  0  0  0  0  0  0  0  0
   10.7450   15.0112   33.0686 H   0  0  0  0  0  0  0  0  0  0  0  0
    9.4629   15.7968   34.5975 C   0  0  0  0  0  0  0  0  0  0  0  0
    9.9826   15.2955   35.4006 H   0  0  0  0  0  0  0  0  0  0  0  0
    8.3649   16.6020   34.8758 C   0  0  0  0  0  0  0  0  0  0  0  0
    8.0321   16.7268   35.8956 H   0  0  0  0  0  0  0  0  0  0  0  0
    6.0824   16.7772   35.8841 O   0  0  0  0  0  0  0  0  0  0  0  0
    4.0049   18.3376   36.3749 *   0  0  0  0  0  0  0  0  0  0  0  0
  1  2  1  0
  1  3  1  0
  3  4  1  0
  3 17  2  0
  4  5  1  0
  4  6  1  0
  6  7  2  0
  6 15  1  0
  7  8  1  0
  7  9  1  0
  9 10  1  0
  9 11  2  0
 11 12  1  0
 11 13  1  0
 13 14  1  0
 13 15  2  0
 15 16  1  0
  1 18  1  0
V   18 *
M  END
>  <kinase>  (2) 
AurA

>  <family>  (2) 
Aur

>  <group>  (2) 
Other

>  <complex_pdb>  (2) 
3m11

>  <ligand_pdb>  (2) 
AKI

>  <alt>  (2) 
 

>  <chain>  (2) 
A

>  <atom.prop.subpocket>  (2) 
B2 B2 B2 B2 B2 B2 B2 B2 B2 B2 B2 B2 B2 B2 B2 B2 B2 GA

>  <atom.prop.environment>  (2) 
5 5 1 5 5 16 16 16 16 16 16 16 16 16 16 16 1 na

$$$$
4uyn_chainA
     RDKit          3D

 15 16  0  0  0  0  0  0  0  0999 V2000
    5.3976   22.0038   36.0281 C   0  0  0  0  0  0  0  0  0  0  0  0
    5.8409   23.0642   35.3510 N   0  0  0  0  0  0  0  0  0  0  0  0
    7.0946   22.7030   34.9956 C   0  0  0  0  0  0  0  0  0  0  0  0
    8.0670   23.3553   34.2503 C   0  0  0  0  0  0  0  0  0  0  0  0
    7.8861   24.3501   33.8708 H   0  0  0  0  0  0  0  0  0  0  0  0
    9.2784   22.7158   33.9960 C   0  0  0  0  0  0  0  0  0  0  0  0
   10.0307   23.2146   33.4030 H   0  0  0  0  0  0  0  0  0  0  0  0
    9.5313   21.4398   34.4978 C   0  0  0  0  0  0  0  0  0  0  0  0
   10.4732   20.9550   34.2877 H   0  0  0  0  0  0  0  0  0  0  0  0
    8.5779   20.7933   35.2644 C   0  0  0  0  0  0  0  0  0  0  0  0
    8.7793   19.8149   35.6751 H   0  0  0  0  0  0  0  0  0  0  0  0
    7.3530   21.4191   35.5011 C   0  0  0  0  0  0  0  0  0  0  0  0
    6.2625   20.9963   36.1580 N   0  0  0  0  0  0  0  0  0  0  0  0
    6.1274   20.1186   36.6392 H   0  0  0  0  0  0  0  0  0  0  0  0
    3.7909   21.8590   36.6814 *   0  0  0  0  0  0  0  0  0  0  0  0
  1  2  2  0
  1 13  1  0
  2  3  1  0
  3  4  2  0
  3 12  1  0
  4  5  1  0
  4  6  1  0
  6  7  1  0
  6  8  2  0
  8  9  1  0
  8 10  1  0
 10 11  1  0
 10 12  2  0
 12 13  1  0
 13 14  1  0
  1 15  1  0
V   15 *
M  END
>  <kinase>  (3) 
AurA

>  <family>  (3) 
Aur

>  <group>  (3) 
Other

>  <complex_pdb>  (3) 
4uyn

>  <ligand_pdb>  (3) 
Y3M

>  <alt>  (3) 
 

>  <chain>  (3) 
A

>  <atom.prop.subpocket>  (3) 
B2 B2 B2 B2 B2 B2 B2 B2 B2 B2 B2 B2 B2 B2 GA

>  <atom.prop.environment>  (3) 
14 14 14 14 14 14 14 14 14 14 14 14 14 14 na

$$$$
5fbo_altA_chainA
     RDKit          3D

 14 14  0  0  0  0  0  0  0  0999 V2000
    5.3862   20.3823   36.2602 C   0  0  0  0  0  0  0  0  0  0  0  0
    4.6536   20.4534   35.1352 N   0  0  0  0  0  0  0  0  0  0  0  0
    5.3068   20.6958   33.9882 C   0  0  0  0  0  0  0  0  0  0  0  0
    4.7348   20.7466   33.0735 H   0  0  0  0  0  0  0  0  0  0  0  0
    6.6681   20.8830   33.9181 C   0  0  0  0  0  0  0  0  0  0  0  0
    7.1399   21.0948   32.9699 H   0  0  0  0  0  0  0  0  0  0  0  0
    7.4301   20.7978   35.0738 C   0  0  0  0  0  0  0  0  0  0  0  0
    6.7786   20.5461   36.2795 C   0  0  0  0  0  0  0  0  0  0  0  0
    7.3316   20.4789   37.2047 H   0  0  0  0  0  0  0  0  0  0  0  0
    8.9139   20.9989   35.0450 C   0  0  0  0  0  0  0  0  0  0  0  0
    9.4279   21.4166   36.2080 F   0  0  0  0  0  0  0  0  0  0  0  0
    9.5773   19.8877   34.7335 F   0  0  0  0  0  0  0  0  0  0  0  0
    9.2904   21.9425   34.1929 F   0  0  0  0  0  0  0  0  0  0  0  0
    4.5875   20.1204   37.3848 *   0  0  0  0  0  0  0  0  0  0  0  0
  1  2  2  0
  1  8  1  0
  2  3  1  0
  3  4  1  0
  3  5  2  0
  5  6  1  0
  5  7  1  0
  7  8  2  0
  7 10  1  0
  8  9  1  0
 10 11  1  0
 10 12  1  0
 10 13  1  0
  1 14  1  0
V   14 *
M  END
>  <kinase>  (4) 
BTK

>  <family>  (4) 
Tec

>  <group>  (4) 
TK

>  <complex_pdb>  (4) 
5fbo

>  <ligand_pdb>  (4) 
5WH

>  <alt>  (4) 
A

>  <chain>  (4) 
A

>  <atom.prop.subpocket>  (4) 
B2 B2 B2 B2 B2 B2 B2 B2 B2 B2 B2 B2 B2 GA

>  <atom.prop.environment>  (4) 
16 16 16 16 16 16 16 16 16 8 8 8 8 na

$$$$
3w2o_altB_chainA
     RDKit          3D

 15 15  0  0  0  0  0  0  0  0999 V2000
    6.6079   22.0083   37.3160 C   0  0  0  0  0  0  0  0  0  0  0  0
    6.0781   22.9251   37.5286 H   0  0  0  0  0  0  0  0  0  0  0  0
    7.9743   19.6271   36.7493 C   0  0  0  0  0  0  0  0  0  0  0  0
    7.5289   19.9011   38.0462 C   0  0  0  0  0  0  0  0  0  0  0  0
    7.7203   19.1887   38.8350 H   0  0  0  0  0  0  0  0  0  0  0  0
    8.7186   18.3358   36.4636 C   0  0  0  0  0  0  0  0  0  0  0  0
    8.2218   17.3250   37.1775 F   0  0  0  0  0  0  0  0  0  0  0  0
    8.6549   18.0388   35.1681 F   0  0  0  0  0  0  0  0  0  0  0  0
    9.9912   18.4934   36.7935 F   0  0  0  0  0  0  0  0  0  0  0  0
    7.7412   20.5669   35.7388 C   0  0  0  0  0  0  0  0  0  0  0  0
    8.0913   20.3740   34.7355 H   0  0  0  0  0  0  0  0  0  0  0  0
    7.0591   21.7522   36.0196 C   0  0  0  0  0  0  0  0  0  0  0  0
    6.8803   22.4712   35.2338 H   0  0  0  0  0  0  0  0  0  0  0  0
    6.8379   21.0858   38.3394 C   0  0  0  0  0  0  0  0  0  0  0  0
    6.4030   21.3490   39.6308 *   0  0  0  0  0  0  0  0  0  0  0  0
  1  2  1  0
  1 12  2  0
  1 14  1  0
  3  4  1  0
  3  6  1  0
  3 10  2  0
  4  5  1  0
  4 14  2  0
  6  7  1  0
  6  8  1  0
  6  9  1  0
 10 11  1  0
 10 12  1  0
 12 13  1  0
 14 15  1  0
V   15 *
M  END
>  <kinase>  (5) 
EGFR

>  <family>  (5) 
EGFR

>  <group>  (5) 
TK

>  <complex_pdb>  (5) 
3w2o

>  <ligand_pdb>  (5) 
03P

>  <alt>  (5) 
B

>  <chain>  (5) 
A

>  <atom.prop.subpocket>  (5) 
B2 B2 B2 B2 B2 B2 B2 B2 B2 B2 B2 B2 B2 B2 GA

>  <atom.prop.environment>  (5) 
16 16 16 16 16 8 8 8 8 16 16 16 16 16 na

$$$$
3w2r_altA_chainA
     RDKit          3D

 24 24  0  0  0  0  0  0  0  0999 V2000
    7.4978   21.0282   32.6329 C   0  0  0  0  0  0  0  0  0  0  0  0
   12.0253   20.7565   29.7756 C   0  0  0  0  0  0  0  0  0  0  0  0
   11.9731   21.6450   29.1463 H   0  0  0  0  0  0  0  0  0  0  0  0
   12.9931   20.2731   29.6422 H   0  0  0  0  0  0  0  0  0  0  0  0
   10.9353   19.8004   29.3722 C   0  0  0  0  0  0  0  0  0  0  0  0
   11.0200   18.8828   29.9545 H   0  0  0  0  0  0  0  0  0  0  0  0
   11.0276   19.5673   28.3114 H   0  0  0  0  0  0  0  0  0  0  0  0
   11.8669   21.1688   31.2418 C   0  0  0  0  0  0  0  0  0  0  0  0
   12.6367   21.8987   31.4923 H   0  0  0  0  0  0  0  0  0  0  0  0
   11.9813   20.2885   31.8743 H   0  0  0  0  0  0  0  0  0  0  0  0
    9.5890   20.4476   29.6356 C   0  0  0  0  0  0  0  0  0  0  0  0
    8.7961   19.7620   29.3365 H   0  0  0  0  0  0  0  0  0  0  0  0
    9.5126   21.3669   29.0550 H   0  0  0  0  0  0  0  0  0  0  0  0
   10.5022   21.7824   31.4873 C   0  0  0  0  0  0  0  0  0  0  0  0
   10.3891   22.6800   30.8793 H   0  0  0  0  0  0  0  0  0  0  0  0
   10.4012   22.0422   32.5410 H   0  0  0  0  0  0  0  0  0  0  0  0
    9.4392   20.7727   31.1075 C   0  0  0  0  0  0  0  0  0  0  0  0
    9.5820   19.8711   31.7032 H   0  0  0  0  0  0  0  0  0  0  0  0
    6.2098   21.5314   32.6472 N   0  0  0  0  0  0  0  0  0  0  0  0
    5.8489   21.8323   31.7532 H   0  0  0  0  0  0  0  0  0  0  0  0
    8.0976   21.2404   31.4118 N   0  0  0  0  0  0  0  0  0  0  0  0
    7.5849   21.7408   30.6998 H   0  0  0  0  0  0  0  0  0  0  0  0
    8.0401   20.3936   33.5209 O   0  0  0  0  0  0  0  0  0  0  0  0
    5.3324   21.6812   33.7401 *   0  0  0  0  0  0  0  0  0  0  0  0
  1 19  1  0
  1 21  1  0
  1 23  2  0
  2  3  1  0
  2  4  1  0
  2  5  1  0
  2  8  1  0
  5  6  1  0
  5  7  1  0
  5 11  1  0
  8  9  1  0
  8 10  1  0
  8 14  1  0
 11 12  1  0
 11 13  1  0
 11 17  1  0
 14 15  1  0
 14 16  1  0
 14 17  1  0
 17 18  1  0
 17 21  1  0
 19 20  1  0
 21 22  1  0
 19 24  1  0
V   24 *
M  END
>  <kinase>  (6) 
EGFR

>  <family>  (6) 
EGFR

>  <group>  (6) 
TK

>  <complex_pdb>  (6) 
3w2r

>  <ligand_pdb>  (6) 
W2R

>  <alt>  (6) 
A

>  <chain>  (6) 
A

>  <atom.prop.subpocket>  (6) 
B2 B2 B2 B2 B2 B2 B2 B2 B2 B2 B2 B2 B2 B2 B2 B2 B2 B2 B2 B2 B2 B2 B2 B1

>  <atom.prop.environment>  (6) 
1 15 15 15 15 15 15 15 15 15 15 15 15 15 15 15 15 15 5 5 5 5 1 na

$$$$
4qtb_altB_chainA
     RDKit          3D

 31 32  0  0  0  0  0  0  0  0999 V2000
    5.4230   18.4645   34.8847 C   0  0  0  0  0  0  0  0  0  0  0  0
    4.8174   19.2288   34.3977 H   0  0  0  0  0  0  0  0  0  0  0  0
    5.3923   17.5473   34.2966 H   0  0  0  0  0  0  0  0  0  0  0  0
    6.8562   18.9534   34.9042 C   0  0  0  0  0  0  0  0  0  0  0  0
    7.3352   19.3764   35.9453 O   0  0  0  0  0  0  0  0  0  0  0  0
    7.5323   18.9115   33.7421 N   0  0  0  0  0  0  0  0  0  0  0  0
    7.1566   18.1577   32.5405 C   0  0  0  0  0  0  0  0  0  0  0  0
    7.3894   18.7479   31.6541 H   0  0  0  0  0  0  0  0  0  0  0  0
    6.0878   17.9448   32.5648 H   0  0  0  0  0  0  0  0  0  0  0  0
    7.9290   16.8567   32.4972 C   0  0  0  0  0  0  0  0  0  0  0  0
    7.7472   16.3704   31.5388 H   0  0  0  0  0  0  0  0  0  0  0  0
    7.5795   16.2121   33.3037 H   0  0  0  0  0  0  0  0  0  0  0  0
    9.3743   17.0734   32.6539 N   0  0  0  0  0  0  0  0  0  0  0  0
    9.7416   18.0201   33.7170 C   0  0  0  0  0  0  0  0  0  0  0  0
   10.7965   18.2741   33.6134 H   0  0  0  0  0  0  0  0  0  0  0  0
    9.5755   17.5455   34.6841 H   0  0  0  0  0  0  0  0  0  0  0  0
    8.9341   19.2748   33.6500 C   0  0  0  0  0  0  0  0  0  0  0  0
    9.2012   19.9313   34.4781 H   0  0  0  0  0  0  0  0  0  0  0  0
    9.1224   19.7858   32.7058 H   0  0  0  0  0  0  0  0  0  0  0  0
   10.1102   15.8563   32.6062 C   0  0  0  0  0  0  0  0  0  0  0  0
    9.4821   14.7023   32.1619 C   0  0  0  0  0  0  0  0  0  0  0  0
    8.4552   14.7526   31.8313 H   0  0  0  0  0  0  0  0  0  0  0  0
   10.1444   13.4885   32.1335 C   0  0  0  0  0  0  0  0  0  0  0  0
    9.6240   12.6088   31.7847 H   0  0  0  0  0  0  0  0  0  0  0  0
   11.4537   13.3811   32.5414 C   0  0  0  0  0  0  0  0  0  0  0  0
   12.1111   14.5446   33.0000 C   0  0  0  0  0  0  0  0  0  0  0  0
   13.1353   14.4781   33.3361 H   0  0  0  0  0  0  0  0  0  0  0  0
   11.4539   15.7887   33.0264 C   0  0  0  0  0  0  0  0  0  0  0  0
   11.9699   16.6759   33.3627 H   0  0  0  0  0  0  0  0  0  0  0  0
    4.8442   18.1914   36.1364 *   0  0  0  0  0  0  0  0  0  0  0  0
   12.0975   12.0232   32.5982 *   0  0  0  0  0  0  0  0  0  0  0  0
  1  2  1  0
  1  3  1  0
  1  4  1  0
  4  5  2  0
  4  6  1  0
  6  7  1  0
  6 17  1  0
  7  8  1  0
  7  9  1  0
  7 10  1  0
 10 11  1  0
 10 12  1  0
 10 13  1  0
 13 14  1  0
 13 20  1  0
 14 15  1  0
 14 16  1  0
 14 17  1  0
 17 18  1  0
 17 19  1  0
 20 21  2  0
 20 28  1  0
 21 22  1  0
 21 23  1  0
 23 24  1  0
 23 25  2  0
 25 26  1  0
 26 27  1  0
 26 28  2  0
 28 29  1  0
  1 30  1  0
 25 31  1  0
V   30 *
V   31 *
M  END
>  <kinase>  (7) 
Erk1

>  <family>  (7) 
MAPK

>  <group>  (7) 
CMGC

>  <complex_pdb>  (7) 
4qtb

>  <ligand_pdb>  (7) 
38Z

>  <alt>  (7) 
B

>  <chain>  (7) 
A

>  <atom.prop.subpocket>  (7) 
B2 B2 B2 B2 B2 B2 B2 B2 B2 B2 B2 B2 B2 B2 B2 B2 B2 B2 B2 B2 B2 B2 B2 B2 B2 B2 B2 B2 B2 GA X-B2

>  <atom.prop.environment>  (7) 
4 4 4 4 4 5 5 5 5 5 5 5 5 5 5 5 5 5 5 16 16 16 16 16 16 16 16 16 16 na na

$$$$
4fv2_altB_chainA
     RDKit          3D

 20 21  0  0  0  0  0  0  0  0999 V2000
    3.1888   16.6635   37.0363 C   0  0  0  0  0  0  0  0  0  0  0  0
    3.2740   17.3394   36.1854 H   0  0  0  0  0  0  0  0  0  0  0  0
    2.5277   15.8361   36.7784 H   0  0  0  0  0  0  0  0  0  0  0  0
    4.5567   16.1021   37.3346 C   0  0  0  0  0  0  0  0  0  0  0  0
    4.8896   15.6341   38.6115 C   0  0  0  0  0  0  0  0  0  0  0  0
    4.1572   15.6940   39.4029 H   0  0  0  0  0  0  0  0  0  0  0  0
    6.1385   15.0952   38.8835 C   0  0  0  0  0  0  0  0  0  0  0  0
    6.3868   14.7466   39.8751 H   0  0  0  0  0  0  0  0  0  0  0  0
    7.0603   15.0154   37.8505 C   0  0  0  0  0  0  0  0  0  0  0  0
    8.3283   14.4831   37.8789 O   0  0  0  0  0  0  0  0  0  0  0  0
    8.9402   14.6098   36.5635 C   0  0  0  0  0  0  0  0  0  0  0  0
    9.2300   13.6266   36.1928 H   0  0  0  0  0  0  0  0  0  0  0  0
    9.8207   15.2494   36.6240 H   0  0  0  0  0  0  0  0  0  0  0  0
    7.9098   15.2330   35.6298 C   0  0  0  0  0  0  0  0  0  0  0  0
    7.6295   14.5482   34.8294 H   0  0  0  0  0  0  0  0  0  0  0  0
    8.2729   16.1661   35.1991 H   0  0  0  0  0  0  0  0  0  0  0  0
    6.7656   15.4710   36.5795 C   0  0  0  0  0  0  0  0  0  0  0  0
    5.5179   16.0204   36.3299 C   0  0  0  0  0  0  0  0  0  0  0  0
    5.2875   16.3906   35.3418 H   0  0  0  0  0  0  0  0  0  0  0  0
    2.5938   17.3959   38.1442 *   0  0  0  0  0  0  0  0  0  0  0  0
  1  2  1  0
  1  3  1  0
  1  4  1  0
  4  5  2  0
  4 18  1  0
  5  6  1  0
  5  7  1  0
  7  8  1  0
  7  9  2  0
  9 10  1  0
  9 17  1  0
 10 11  1  0
 11 12  1  0
 11 13  1  0
 11 14  1  0
 14 15  1  0
 14 16  1  0
 14 17  1  0
 17 18  2  0
 18 19  1  0
  1 20  1  0
V   20 *
M  END
>  <kinase>  (8) 
Erk2

>  <family>  (8) 
MAPK

>  <group>  (8) 
CMGC

>  <complex_pdb>  (8) 
4fv2

>  <ligand_pdb>  (8) 
EK5

>  <alt>  (8) 
B

>  <chain>  (8) 
A

>  <atom.prop.subpocket>  (8) 
B2 B2 B2 B2 B2 B2 B2 B2 B2 B2 B2 B2 B2 B2 B2 B2 B2 B2 B2 GA

>  <atom.prop.environment>  (8) 
8 8 8 16 16 16 16 16 16 16 16 16 16 16 16 16 16 16 16 na

$$$$
6g9d_altB_chainA
     RDKit          3D

 21 20  0  0  0  0  0  0  0  0999 V2000
    7.4850   18.6840   32.5113 C   0  0  0  0  0  0  0  0  0  0  0  0
    8.3065   19.2721   32.1022 H   0  0  0  0  0  0  0  0  0  0  0  0
    6.5408   19.1905   32.3115 H   0  0  0  0  0  0  0  0  0  0  0  0
    7.4751   17.6993   32.0439 H   0  0  0  0  0  0  0  0  0  0  0  0
    7.6710   18.5298   34.0199 C   0  0  0  0  0  0  0  0  0  0  0  0
    8.9828   17.8007   34.3151 C   0  0  0  0  0  0  0  0  0  0  0  0
    9.8178   18.3830   33.9254 H   0  0  0  0  0  0  0  0  0  0  0  0
    8.9692   16.8207   33.8380 H   0  0  0  0  0  0  0  0  0  0  0  0
    9.0963   17.6787   35.3923 H   0  0  0  0  0  0  0  0  0  0  0  0
    6.1875   17.6037   35.8426 C   0  0  0  0  0  0  0  0  0  0  0  0
    4.9658   16.7391   36.0929 C   0  0  0  0  0  0  0  0  0  0  0  0
    5.2609   15.6926   36.0168 H   0  0  0  0  0  0  0  0  0  0  0  0
    4.2210   16.9630   35.3292 H   0  0  0  0  0  0  0  0  0  0  0  0
    7.6761   19.9076   34.6849 C   0  0  0  0  0  0  0  0  0  0  0  0
    8.5042   20.4976   34.2921 H   0  0  0  0  0  0  0  0  0  0  0  0
    7.7923   19.7907   35.7624 H   0  0  0  0  0  0  0  0  0  0  0  0
    6.7354   20.4164   34.4740 H   0  0  0  0  0  0  0  0  0  0  0  0
    6.5486   17.7310   34.5527 N   0  0  0  0  0  0  0  0  0  0  0  0
    5.9930   17.2265   33.8767 H   0  0  0  0  0  0  0  0  0  0  0  0
    6.7889   18.1423   36.7690 O   0  0  0  0  0  0  0  0  0  0  0  0
    4.3662   16.9559   37.4001 *   0  0  0  0  0  0  0  0  0  0  0  0
  1  2  1  0
  1  3  1  0
  1  4  1  0
  1  5  1  0
  5  6  1  0
  5 14  1  0
  5 18  1  0
  6  7  1  0
  6  8  1  0
  6  9  1  0
 10 11  1  0
 10 18  1  0
 10 20  2  0
 11 12  1  0
 11 13  1  0
 14 15  1  0
 14 16  1  0
 14 17  1  0
 18 19  1  0
 11 21  1  0
V   21 *
M  END
>  <kinase>  (9) 
Erk2

>  <family>  (9) 
MAPK

>  <group>  (9) 
CMGC

>  <complex_pdb>  (9) 
6g9d

>  <ligand_pdb>  (9) 
ER8

>  <alt>  (9) 
B

>  <chain>  (9) 
A

>  <atom.prop.subpocket>  (9) 
B2 B2 B2 B2 B2 B2 B2 B2 B2 B2 B2 B2 B2 B2 B2 B2 B2 B2 B2 B2 GA

>  <atom.prop.environment>  (9) 
4 4 4 4 4 4 4 4 4 8 8 8 8 4 4 4 4 5 5 8 na

$$$$
6g9j_altB_chainA
     RDKit          3D

 25 25  0  0  0  0  0  0  0  0999 V2000
    7.4035   18.6724   32.9486 C   0  0  0  0  0  0  0  0  0  0  0  0
    8.2436   19.2148   32.5150 H   0  0  0  0  0  0  0  0  0  0  0  0
    6.6095   19.3748   33.2024 H   0  0  0  0  0  0  0  0  0  0  0  0
    7.0290   17.9458   32.2275 H   0  0  0  0  0  0  0  0  0  0  0  0
    7.8624   17.9480   34.2078 C   0  0  2  0  0  0  0  0  0  0  0  0
    8.2045   18.6543   34.9642 H   0  0  0  0  0  0  0  0  0  0  0  0
    4.7583   16.8973   36.1685 C   0  0  0  0  0  0  0  0  0  0  0  0
    4.9559   15.8289   36.0807 H   0  0  0  0  0  0  0  0  0  0  0  0
    4.0047   17.1887   35.4369 H   0  0  0  0  0  0  0  0  0  0  0  0
    9.0579   17.0641   33.8921 C   0  0  0  0  0  0  0  0  0  0  0  0
   10.0011   14.9520   33.2093 C   0  0  0  0  0  0  0  0  0  0  0  0
    9.8627   13.9211   32.9184 H   0  0  0  0  0  0  0  0  0  0  0  0
    8.8994   15.7392   33.5078 C   0  0  0  0  0  0  0  0  0  0  0  0
    7.9074   15.3175   33.4407 H   0  0  0  0  0  0  0  0  0  0  0  0
    6.7227   17.2220   34.7816 N   0  0  0  0  0  0  0  0  0  0  0  0
    6.4378   16.3567   34.3454 H   0  0  0  0  0  0  0  0  0  0  0  0
    6.0438   17.6451   35.8488 C   0  0  0  0  0  0  0  0  0  0  0  0
    6.4221   18.5770   36.5445 O   0  0  0  0  0  0  0  0  0  0  0  0
   10.3441   17.5869   33.9519 C   0  0  0  0  0  0  0  0  0  0  0  0
   10.4888   18.6206   34.2294 H   0  0  0  0  0  0  0  0  0  0  0  0
   11.4441   16.7941   33.6586 C   0  0  0  0  0  0  0  0  0  0  0  0
   12.4393   17.2083   33.7252 H   0  0  0  0  0  0  0  0  0  0  0  0
   11.2707   15.4791   33.2823 C   0  0  0  0  0  0  0  0  0  0  0  0
   12.1273   14.8653   33.0458 H   0  0  0  0  0  0  0  0  0  0  0  0
    4.2243   17.1512   37.4935 *   0  0  0  0  0  0  0  0  0  0  0  0
  1  2  1  0
  1  3  1  0
  1  4  1  0
  1  5  1  0
  5  6  1  1
  5 10  1  0
  5 15  1  0
  7  8  1  0
  7  9  1  0
  7 17  1  0
 10 13  2  0
 10 19  1  0
 11 12  1  0
 11 13  1  0
 11 23  2  0
 13 14  1  0
 15 16  1  0
 15 17  1  0
 17 18  2  0
 19 20  1  0
 19 21  2  0
 21 22  1  0
 21 23  1  0
 23 24  1  0
  7 25  1  0
V   25 *
M  END
>  <kinase>  (10) 
Erk2

>  <family>  (10) 
MAPK

>  <group>  (10) 
CMGC

>  <complex_pdb>  (10) 
6g9j

>  <ligand_pdb>  (10) 
ERK

>  <alt>  (10) 
B

>  <chain>  (10) 
A

>  <atom.prop.subpocket>  (10) 
B2 B2 B2 B2 B2 B2 B2 B2 B2 B2 B2 B2 B2 B2 B2 B2 B2 B2 B2 B2 B2 B2 B2 B2 GA

>  <atom.prop.environment>  (10) 
8 8 8 8 8 8 8 8 8 16 16 16 16 16 5 5 8 8 16 16 16 16 16 16 na

$$$$
6g9k_altB_chainA
     RDKit          3D

 26 26  0  0  0  0  0  0  0  0999 V2000
    7.3300   18.2833   33.1131 C   0  0  0  0  0  0  0  0  0  0  0  0
    8.1807   18.7428   32.6099 H   0  0  0  0  0  0  0  0  0  0  0  0
    6.6148   19.0556   33.3962 H   0  0  0  0  0  0  0  0  0  0  0  0
    7.8228   17.5741   34.3765 C   0  0  1  0  0  0  0  0  0  0  0  0
    8.1941   18.2932   35.1067 H   0  0  0  0  0  0  0  0  0  0  0  0
    6.7050   16.8606   34.9818 N   0  0  0  0  0  0  0  0  0  0  0  0
    6.4414   15.9659   34.5942 H   0  0  0  0  0  0  0  0  0  0  0  0
    6.0127   17.3283   36.0209 C   0  0  0  0  0  0  0  0  0  0  0  0
    4.6946   16.6280   36.2875 C   0  0  0  0  0  0  0  0  0  0  0  0
    4.8521   15.5538   36.1909 H   0  0  0  0  0  0  0  0  0  0  0  0
    3.9741   16.9583   35.5392 H   0  0  0  0  0  0  0  0  0  0  0  0
   11.1255   15.0006   33.3608 C   0  0  0  0  0  0  0  0  0  0  0  0
   11.9564   14.3600   33.1046 H   0  0  0  0  0  0  0  0  0  0  0  0
   11.3254   16.3540   33.5445 C   0  0  0  0  0  0  0  0  0  0  0  0
   12.3149   16.7720   33.4326 H   0  0  0  0  0  0  0  0  0  0  0  0
   10.2595   17.1788   33.8726 C   0  0  0  0  0  0  0  0  0  0  0  0
   10.4244   18.2375   34.0081 H   0  0  0  0  0  0  0  0  0  0  0  0
    6.7008   17.3761   32.2209 O   0  0  0  0  0  0  0  0  0  0  0  0
    5.7977   17.6752   32.0920 H   0  0  0  0  0  0  0  0  0  0  0  0
    6.3947   18.2596   36.7235 O   0  0  0  0  0  0  0  0  0  0  0  0
    8.9834   16.6566   34.0283 C   0  0  0  0  0  0  0  0  0  0  0  0
    8.7973   15.2897   33.8372 C   0  0  0  0  0  0  0  0  0  0  0  0
    7.8108   14.8646   33.9492 H   0  0  0  0  0  0  0  0  0  0  0  0
    9.8618   14.4697   33.5052 C   0  0  0  0  0  0  0  0  0  0  0  0
    9.7019   13.4116   33.3592 H   0  0  0  0  0  0  0  0  0  0  0  0
    4.1394   16.8906   37.6013 *   0  0  0  0  0  0  0  0  0  0  0  0
  1  2  1  0
  1  3  1  0
  1  4  1  0
  1 18  1  0
  4  5  1  1
  4  6  1  0
  4 21  1  0
  6  7  1  0
  6  8  1  0
  8  9  1  0
  8 20  2  0
  9 10  1  0
  9 11  1  0
 12 13  1  0
 12 14  2  0
 12 24  1  0
 14 15  1  0
 14 16  1  0
 16 17  1  0
 16 21  2  0
 18 19  1  0
 21 22  1  0
 22 23  1  0
 22 24  2  0
 24 25  1  0
  9 26  1  0
V   26 *
M  END
>  <kinase>  (11) 
Erk2

>  <family>  (11) 
MAPK

>  <group>  (11) 
CMGC

>  <complex_pdb>  (11) 
6g9k

>  <ligand_pdb>  (11) 
ESK

>  <alt>  (11) 
B

>  <chain>  (11) 
A

>  <atom.prop.subpocket>  (11) 
B2 B2 B2 B2 B2 B2 B2 B2 B2 B2 B2 B2 B2 B2 B2 B2 B2 B2 B2 B2 B2 B2 B2 B2 B2 GA

>  <atom.prop.environment>  (11) 
8 8 8 8 8 5 5 8 8 8 8 16 16 16 16 16 16 3 3 8 16 16 16 16 16 na

$$$$
6g9m_altB_chainA
     RDKit          3D

 18 17  0  0  0  0  0  0  0  0999 V2000
    8.2234   14.4217   34.6362 C   0  0  0  0  0  0  0  0  0  0  0  0
    8.1563   14.7460   33.5977 H   0  0  0  0  0  0  0  0  0  0  0  0
    7.5454   13.5841   34.7998 H   0  0  0  0  0  0  0  0  0  0  0  0
    9.2449   14.1103   34.8543 H   0  0  0  0  0  0  0  0  0  0  0  0
    7.8353   15.5795   35.5580 C   0  0  0  0  0  0  0  0  0  0  0  0
    8.6159   16.8332   35.1503 C   0  0  0  0  0  0  0  0  0  0  0  0
    8.4944   17.0050   34.0808 H   0  0  0  0  0  0  0  0  0  0  0  0
    9.6726   16.6934   35.3781 H   0  0  0  0  0  0  0  0  0  0  0  0
    8.2360   17.6932   35.7019 H   0  0  0  0  0  0  0  0  0  0  0  0
    6.4003   15.8638   35.3582 N   0  0  0  0  0  0  0  0  0  0  0  0
    5.9149   15.3582   34.6309 H   0  0  0  0  0  0  0  0  0  0  0  0
    5.6967   16.7547   36.0844 C   0  0  0  0  0  0  0  0  0  0  0  0
    4.1854   16.6077   36.0320 C   0  0  0  0  0  0  0  0  0  0  0  0
    3.9340   15.6135   35.6626 H   0  0  0  0  0  0  0  0  0  0  0  0
    3.7746   17.3600   35.3587 H   0  0  0  0  0  0  0  0  0  0  0  0
    6.2147   17.6441   36.7595 O   0  0  0  0  0  0  0  0  0  0  0  0
    3.6137   16.7853   37.3528 *   0  0  0  0  0  0  0  0  0  0  0  0
    7.9072   15.1894   37.0817 *   0  0  0  0  0  0  0  0  0  0  0  0
  1  2  1  0
  1  3  1  0
  1  4  1  0
  1  5  1  0
  5  6  1  0
  5 10  1  0
  6  7  1  0
  6  8  1  0
  6  9  1  0
 10 11  1  0
 10 12  1  0
 12 13  1  0
 12 16  2  0
 13 14  1  0
 13 15  1  0
 13 17  1  0
  5 18  1  0
V   17 *
V   18 *
M  END
>  <kinase>  (12) 
Erk2

>  <family>  (12) 
MAPK

>  <group>  (12) 
CMGC

>  <complex_pdb>  (12) 
6g9m

>  <ligand_pdb>  (12) 
ESW

>  <alt>  (12) 
B

>  <chain>  (12) 
A

>  <atom.prop.subpocket>  (12) 
B2 B2 B2 B2 B2 B2 B2 B2 B2 B2 B2 B2 B2 B2 B2 B2 GA GA

>  <atom.prop.environment>  (12) 
8 8 8 8 8 8 8 8 8 5 5 8 8 8 8 8 na na

$$$$
6ge0_altA_chainA
     RDKit          3D

 29 29  0  0  0  0  0  0  0  0999 V2000
    8.3309   13.0632   32.7455 C   0  0  0  0  0  0  0  0  0  0  0  0
    8.3514   12.0335   32.3885 H   0  0  0  0  0  0  0  0  0  0  0  0
    7.6928   13.6608   32.0944 H   0  0  0  0  0  0  0  0  0  0  0  0
    7.9376   13.0877   33.7617 H   0  0  0  0  0  0  0  0  0  0  0  0
    9.8423   14.8928   33.1525 C   0  0  0  0  0  0  0  0  0  0  0  0
   11.4101   16.6369   33.6425 C   0  0  0  0  0  0  0  0  0  0  0  0
   12.4304   16.9821   33.7207 H   0  0  0  0  0  0  0  0  0  0  0  0
   10.3639   17.4859   33.9590 C   0  0  0  0  0  0  0  0  0  0  0  0
   10.5743   18.5030   34.2551 H   0  0  0  0  0  0  0  0  0  0  0  0
    9.0457   17.0473   33.9009 C   0  0  0  0  0  0  0  0  0  0  0  0
    8.7974   15.7425   33.4843 C   0  0  0  0  0  0  0  0  0  0  0  0
    7.7794   15.3877   33.4186 H   0  0  0  0  0  0  0  0  0  0  0  0
    7.5199   18.8512   33.0426 C   0  0  0  0  0  0  0  0  0  0  0  0
    8.3993   19.3790   32.6737 H   0  0  0  0  0  0  0  0  0  0  0  0
    6.7601   19.5743   33.3393 H   0  0  0  0  0  0  0  0  0  0  0  0
    7.1237   18.2105   32.2548 H   0  0  0  0  0  0  0  0  0  0  0  0
    6.0561   17.6215   35.8359 C   0  0  0  0  0  0  0  0  0  0  0  0
    4.7515   16.8796   36.0363 C   0  0  0  0  0  0  0  0  0  0  0  0
    4.9324   15.8129   35.9040 H   0  0  0  0  0  0  0  0  0  0  0  0
    4.0365   17.2223   35.2884 H   0  0  0  0  0  0  0  0  0  0  0  0
    9.6576   13.5981   32.7346 O   0  0  0  0  0  0  0  0  0  0  0  0
   11.1458   15.3492   33.2272 C   0  0  0  0  0  0  0  0  0  0  0  0
   11.9609   14.6934   32.9589 H   0  0  0  0  0  0  0  0  0  0  0  0
    7.9070   17.9970   34.2465 C   0  0  1  0  0  0  0  0  0  0  0  0
    8.2784   18.6364   35.0473 H   0  0  0  0  0  0  0  0  0  0  0  0
    6.7245   17.2955   34.7321 N   0  0  0  0  0  0  0  0  0  0  0  0
    6.3899   16.5089   34.1943 H   0  0  0  0  0  0  0  0  0  0  0  0
    6.4447   18.4575   36.6444 O   0  0  0  0  0  0  0  0  0  0  0  0
    4.1849   17.0951   37.3539 *   0  0  0  0  0  0  0  0  0  0  0  0
  1  2  1  0
  1  3  1  0
  1  4  1  0
  1 21  1  0
  5 11  2  0
  5 21  1  0
  5 22  1  0
  6  7  1  0
  6  8  1  0
  6 22  2  0
  8  9  1  0
  8 10  2  0
 10 11  1  0
 10 24  1  0
 11 12  1  0
 13 14  1  0
 13 15  1  0
 13 16  1  0
 13 24  1  0
 17 18  1  0
 17 26  1  0
 17 28  2  0
 18 19  1  0
 18 20  1  0
 22 23  1  0
 24 25  1  1
 24 26  1  0
 26 27  1  0
 18 29  1  0
V   29 *
M  END
>  <kinase>  (13) 
Erk2

>  <family>  (13) 
MAPK

>  <group>  (13) 
CMGC

>  <complex_pdb>  (13) 
6ge0

>  <ligand_pdb>  (13) 
EVQ

>  <alt>  (13) 
A

>  <chain>  (13) 
A

>  <atom.prop.subpocket>  (13) 
B2 B2 B2 B2 B2 B2 B2 B2 B2 B2 B2 B2 B2 B2 B2 B2 B2 B2 B2 B2 B2 B2 B2 B2 B2 B2 B2 B2 GA

>  <atom.prop.environment>  (13) 
3 3 3 3 16 16 16 16 16 16 16 16 8 8 8 8 8 8 8 8 3 16 16 8 8 5 5 8 na

$$$$
2c0i_altB_chainB
     RDKit          3D

 19 20  0  0  0  0  0  0  0  0999 V2000
    4.7466   21.0225   35.6350 C   0  0  0  0  0  0  0  0  0  0  0  0
    4.7047   22.0249   34.7156 N   0  0  0  0  0  0  0  0  0  0  0  0
    5.9600   20.3449   35.5459 C   0  0  0  0  0  0  0  0  0  0  0  0
    6.3042   19.4996   36.1232 H   0  0  0  0  0  0  0  0  0  0  0  0
    5.8596   22.0684   34.0018 C   0  0  0  0  0  0  0  0  0  0  0  0
    3.5699   22.9613   34.5151 C   0  0  0  0  0  0  0  0  0  0  0  0
    2.7678   22.7142   35.2106 H   0  0  0  0  0  0  0  0  0  0  0  0
    3.2036   22.8745   33.4922 H   0  0  0  0  0  0  0  0  0  0  0  0
    3.9054   23.9826   34.6954 H   0  0  0  0  0  0  0  0  0  0  0  0
    6.6368   21.0469   34.4999 C   0  0  0  0  0  0  0  0  0  0  0  0
    6.3401   22.8747   32.9565 C   0  0  0  0  0  0  0  0  0  0  0  0
    5.7232   23.6711   32.5671 H   0  0  0  0  0  0  0  0  0  0  0  0
    7.9142   20.8124   33.9639 C   0  0  0  0  0  0  0  0  0  0  0  0
    8.5227   20.0092   34.3527 H   0  0  0  0  0  0  0  0  0  0  0  0
    7.6110   22.6541   32.4165 C   0  0  0  0  0  0  0  0  0  0  0  0
    7.9788   23.2769   31.6145 H   0  0  0  0  0  0  0  0  0  0  0  0
    8.4003   21.6186   32.9257 C   0  0  0  0  0  0  0  0  0  0  0  0
    9.3848   21.4400   32.5190 H   0  0  0  0  0  0  0  0  0  0  0  0
    3.6688   20.6445   36.5961 *   0  0  0  0  0  0  0  0  0  0  0  0
  1  2  1  0
  1  3  2  0
  2  5  1  0
  2  6  1  0
  3  4  1  0
  3 10  1  0
  5 10  2  0
  5 11  1  0
  6  7  1  0
  6  8  1  0
  6  9  1  0
 10 13  1  0
 11 12  1  0
 11 15  2  0
 13 14  1  0
 13 17  2  0
 15 16  1  0
 15 17  1  0
 17 18  1  0
  1 19  1  0
V   19 *
M  END
>  <kinase>  (14) 
HCK

>  <family>  (14) 
Src

>  <group>  (14) 
TK

>  <complex_pdb>  (14) 
2c0i

>  <ligand_pdb>  (14) 
L1G

>  <alt>  (14) 
B

>  <chain>  (14) 
B

>  <atom.prop.subpocket>  (14) 
B2 B2 B2 B2 B2 B2 B2 B2 B2 B2 B2 B2 B2 B2 B2 B2 B2 B2 GA

>  <atom.prop.environment>  (14) 
9 9 9 9 9 8 8 8 8 9 9 9 9 9 9 9 9 9 na

$$$$
6e9w_chainB
     RDKit          3D

 18 19  0  0  0  0  0  0  0  0999 V2000
    7.8682   15.0001   38.9230 C   0  0  0  0  0  0  0  0  0  0  0  0
    8.1385   15.2395   39.9409 H   0  0  0  0  0  0  0  0  0  0  0  0
    8.8683   14.7354   37.9724 C   0  0  0  0  0  0  0  0  0  0  0  0
    9.9114   14.7749   38.2496 H   0  0  0  0  0  0  0  0  0  0  0  0
    8.4900   14.4163   36.6471 C   0  0  0  0  0  0  0  0  0  0  0  0
    7.1303   14.3745   36.2545 C   0  0  0  0  0  0  0  0  0  0  0  0
    7.7758   13.8419   34.0241 C   0  0  0  0  0  0  0  0  0  0  0  0
    7.4500   14.2115   33.0518 H   0  0  0  0  0  0  0  0  0  0  0  0
    7.9599   12.7694   33.9621 H   0  0  0  0  0  0  0  0  0  0  0  0
    6.1132   14.6675   37.1929 C   0  0  0  0  0  0  0  0  0  0  0  0
    6.7473   14.0719   34.9645 O   0  0  0  0  0  0  0  0  0  0  0  0
    9.1005   14.5534   34.4092 C   0  0  0  0  0  0  0  0  0  0  0  0
    8.9536   15.6328   34.3707 H   0  0  0  0  0  0  0  0  0  0  0  0
    9.8807   14.2676   33.7037 H   0  0  0  0  0  0  0  0  0  0  0  0
    9.4976   14.1790   35.7274 O   0  0  0  0  0  0  0  0  0  0  0  0
    6.5073   14.9525   38.5437 C   0  0  0  0  0  0  0  0  0  0  0  0
    5.7459   15.1347   39.2877 H   0  0  0  0  0  0  0  0  0  0  0  0
    4.6810   14.7558   36.6988 *   0  0  0  0  0  0  0  0  0  0  0  0
  1  2  1  0
  1  3  2  0
  1 16  1  0
  3  4  1  0
  3  5  1  0
  5  6  2  0
  5 15  1  0
  6 10  1  0
  6 11  1  0
  7  8  1  0
  7  9  1  0
  7 11  1  0
  7 12  1  0
 10 16  2  0
 12 13  1  0
 12 14  1  0
 12 15  1  0
 16 17  1  0
 10 18  1  0
V   18 *
M  END
>  <kinase>  (15) 
ROCK1

>  <family>  (15) 
DMPK

>  <group>  (15) 
AGC

>  <complex_pdb>  (15) 
6e9w

>  <ligand_pdb>  (15) 
J0P

>  <alt>  (15) 
 

>  <chain>  (15) 
B

>  <atom.prop.subpocket>  (15) 
B2 B2 B2 B2 B2 B2 B2 B2 B2 B2 B2 B2 B2 B2 B2 B2 B2 GA

>  <atom.prop.environment>  (15) 
16 16 16 16 16 16 16 16 16 16 16 16 16 16 16 16 16 na

$$$$
1a9u_chainA
     RDKit          3D

 17 17  0  0  0  0  0  0  0  0999 V2000
    7.0984   12.4935   37.1172 O   0  0  0  0  0  0  0  0  0  0  0  0
    8.7400   14.3370   35.6775 C   0  0  0  0  0  0  0  0  0  0  0  0
    9.1756   13.4969   35.1366 H   0  0  0  0  0  0  0  0  0  0  0  0
    9.5054   15.0933   35.8515 H   0  0  0  0  0  0  0  0  0  0  0  0
    7.9307   14.7681   35.0882 H   0  0  0  0  0  0  0  0  0  0  0  0
    8.0830   13.7546   37.2810 S   0  0  0  0  0  0  0  0  0  0  0  0
    5.7365   15.9805   39.7480 C   0  0  0  0  0  0  0  0  0  0  0  0
    4.9178   15.8090   40.4311 H   0  0  0  0  0  0  0  0  0  0  0  0
    6.3080   14.8842   39.0606 C   0  0  0  0  0  0  0  0  0  0  0  0
    5.9358   13.8833   39.2221 H   0  0  0  0  0  0  0  0  0  0  0  0
    7.3784   15.1167   38.1545 C   0  0  0  0  0  0  0  0  0  0  0  0
    7.8998   16.4183   37.9288 C   0  0  0  0  0  0  0  0  0  0  0  0
    8.7187   16.5710   37.2415 H   0  0  0  0  0  0  0  0  0  0  0  0
    7.3290   17.5071   38.6184 C   0  0  0  0  0  0  0  0  0  0  0  0
    7.7189   18.4998   38.4481 H   0  0  0  0  0  0  0  0  0  0  0  0
    6.2289   17.3294   39.5529 C   0  0  0  0  0  0  0  0  0  0  0  0
    5.6405   18.4536   40.2272 *   0  0  0  0  0  0  0  0  0  0  0  0
  1  6  2  0
  2  3  1  0
  2  4  1  0
  2  5  1  0
  6  2  1  6
  6 11  1  0
  7  8  1  0
  7  9  2  0
  7 16  1  0
  9 10  1  0
  9 11  1  0
 11 12  2  0
 12 13  1  0
 12 14  1  0
 14 15  1  0
 14 16  2  0
 16 17  1  0
V   17 *
M  END
>  <kinase>  (16) 
p38a

>  <family>  (16) 
MAPK

>  <group>  (16) 
CMGC

>  <complex_pdb>  (16) 
1a9u

>  <ligand_pdb>  (16) 
SB2

>  <alt>  (16) 
 

>  <chain>  (16) 
A

>  <atom.prop.subpocket>  (16) 
B2 B2 B2 B2 B2 B2 B2 B2 B2 B2 B2 B2 B2 B2 B2 B2 GA

>  <atom.prop.environment>  (16) 
16 16 16 16 16 16 16 16 16 16 16 16 16 16 16 16 na

$$$$
4eym_chainA
     RDKit          3D

 24 25  0  0  0  0  0  0  0  0999 V2000
    4.6518   20.8831   34.9413 C   0  0  0  0  0  0  0  0  0  0  0  0
    5.6304   20.0248   34.4731 C   0  0  0  0  0  0  0  0  0  0  0  0
    5.9846   19.2110   35.0885 H   0  0  0  0  0  0  0  0  0  0  0  0
    6.1515   20.2235   33.2005 C   0  0  0  0  0  0  0  0  0  0  0  0
    7.1207   19.3394   32.7213 N   0  0  0  0  0  0  0  0  0  0  0  0
    7.3653   19.2521   31.2870 C   0  0  0  0  0  0  0  0  0  0  0  0
    7.1297   20.2026   30.8083 H   0  0  0  0  0  0  0  0  0  0  0  0
    6.7528   18.4635   30.8499 H   0  0  0  0  0  0  0  0  0  0  0  0
    8.8426   18.9277   31.1073 C   0  0  0  0  0  0  0  0  0  0  0  0
    9.4336   19.7680   31.4714 H   0  0  0  0  0  0  0  0  0  0  0  0
    9.0424   18.7755   30.0466 H   0  0  0  0  0  0  0  0  0  0  0  0
    9.2263   17.7501   31.8222 O   0  0  0  0  0  0  0  0  0  0  0  0
    8.2941   17.3075   32.8080 C   0  0  0  0  0  0  0  0  0  0  0  0
    8.7680   16.5631   33.4479 H   0  0  0  0  0  0  0  0  0  0  0  0
    7.4278   16.8652   32.3161 H   0  0  0  0  0  0  0  0  0  0  0  0
    7.8477   18.4929   33.6531 C   0  0  0  0  0  0  0  0  0  0  0  0
    7.1990   18.1661   34.4658 H   0  0  0  0  0  0  0  0  0  0  0  0
    8.7081   19.0205   34.0646 H   0  0  0  0  0  0  0  0  0  0  0  0
    5.7147   21.2374   32.4228 N   0  0  0  0  0  0  0  0  0  0  0  0
    4.7758   22.0806   32.8616 C   0  0  0  0  0  0  0  0  0  0  0  0
    4.4441   22.8904   32.2287 H   0  0  0  0  0  0  0  0  0  0  0  0
    4.2222   21.9221   34.1291 C   0  0  0  0  0  0  0  0  0  0  0  0
    3.4619   22.6050   34.4783 H   0  0  0  0  0  0  0  0  0  0  0  0
    4.0627   20.6948   36.3066 *   0  0  0  0  0  0  0  0  0  0  0  0
  1  2  2  0
  1 22  1  0
  2  3  1  0
  2  4  1  0
  4  5  1  0
  4 19  2  0
  5  6  1  0
  5 16  1  0
  6  7  1  0
  6  8  1  0
  6  9  1  0
  9 10  1  0
  9 11  1  0
  9 12  1  0
 12 13  1  0
 13 14  1  0
 13 15  1  0
 13 16  1  0
 16 17  1  0
 16 18  1  0
 19 20  1  0
 20 21  1  0
 20 22  2  0
 22 23  1  0
  1 24  1  0
V   24 *
M  END
>  <kinase>  (17) 
p38d

>  <family>  (17) 
MAPK

>  <group>  (17) 
CMGC

>  <complex_pdb>  (17) 
4eym

>  <ligand_pdb>  (17) 
0RX

>  <alt>  (17) 
 

>  <chain>  (17) 
A

>  <atom.prop.subpocket>  (17) 
B2 B2 B2 B2 B2 B2 B2 B2 B2 B2 B2 B2 B2 B2 B2 B2 B2 B2 B2 B2 B2 B2 B2 GA

>  <atom.prop.environment>  (17) 
16 16 16 16 5 5 5 5 5 5 5 5 5 5 5 5 5 5 16 16 16 16 16 na

$$$$
5eko_chainA
     RDKit          3D

 22 23  0  0  0  0  0  0  0  0999 V2000
    4.5255   20.7377   35.0610 C   0  0  0  0  0  0  0  0  0  0  0  0
    4.0991   21.8457   34.3470 C   0  0  0  0  0  0  0  0  0  0  0  0
    3.3102   22.4726   34.7356 H   0  0  0  0  0  0  0  0  0  0  0  0
    4.6924   22.1438   33.1303 C   0  0  0  0  0  0  0  0  0  0  0  0
    4.3672   23.0067   32.5681 H   0  0  0  0  0  0  0  0  0  0  0  0
    5.7040   21.3340   32.6344 C   0  0  0  0  0  0  0  0  0  0  0  0
    6.1489   21.5834   31.6824 H   0  0  0  0  0  0  0  0  0  0  0  0
    5.5479   19.9479   34.5468 C   0  0  0  0  0  0  0  0  0  0  0  0
    5.8787   19.0942   35.1198 H   0  0  0  0  0  0  0  0  0  0  0  0
    6.1684   20.2109   33.3174 C   0  0  0  0  0  0  0  0  0  0  0  0
    7.1459   19.4317   32.8449 N   0  0  0  0  0  0  0  0  0  0  0  0
    7.5537   18.3686   33.5286 C   0  0  0  0  0  0  0  0  0  0  0  0
    7.2112   17.9898   34.4802 H   0  0  0  0  0  0  0  0  0  0  0  0
    7.7731   19.6556   31.6841 C   0  0  0  0  0  0  0  0  0  0  0  0
    7.6022   20.4621   30.9864 H   0  0  0  0  0  0  0  0  0  0  0  0
    8.6734   18.6421   31.5782 N   0  0  0  0  0  0  0  0  0  0  0  0
    8.5357   17.8804   32.6893 C   0  0  0  0  0  0  0  0  0  0  0  0
    9.2105   16.6383   33.2009 C   0  0  0  0  0  0  0  0  0  0  0  0
    8.7776   16.3590   34.1614 H   0  0  0  0  0  0  0  0  0  0  0  0
   10.2766   16.8287   33.3245 H   0  0  0  0  0  0  0  0  0  0  0  0
    9.0668   15.8267   32.4876 H   0  0  0  0  0  0  0  0  0  0  0  0
    3.8824   20.4177   36.3825 *   0  0  0  0  0  0  0  0  0  0  0  0
  1  2  2  0
  1  8  1  0
  2  3  1  0
  2  4  1  0
  4  5  1  0
  4  6  2  0
  6  7  1  0
  6 10  1  0
  8  9  1  0
  8 10  2  0
 10 11  1  0
 11 12  1  0
 11 14  1  0
 12 13  1  0
 12 17  2  0
 14 15  1  0
 14 16  2  0
 16 17  1  0
 17 18  1  0
 18 19  1  0
 18 20  1  0
 18 21  1  0
  1 22  1  0
V   22 *
M  END
>  <kinase>  (18) 
p38d

>  <family>  (18) 
MAPK

>  <group>  (18) 
CMGC

>  <complex_pdb>  (18) 
5eko

>  <ligand_pdb>  (18) 
N17

>  <alt>  (18) 
 

>  <chain>  (18) 
A

>  <atom.prop.subpocket>  (18) 
B2 B2 B2 B2 B2 B2 B2 B2 B2 B2 B2 B2 B2 B2 B2 B2 B2 B2 B2 B2 B2 GA

>  <atom.prop.environment>  (18) 
16 16 16 16 16 16 16 16 16 16 9 9 9 9 9 9 9 8 8 8 8 na

$$$$
